inputs/GSO_Base_Network/Industrial/Linecodes.dss
New Linecode.2P_Code0 nphases=2 Faultrate=0.1 Rmatrix=(0.000104792065447 -2.52078735933e-05 | -2.52078735933e-05 0.000104792065447 ) Xmatrix=(6.04508601456e-05 3.14508479536e-05 | 3.14508479536e-05 6.04508601456e-05 ) Cmatrix=(0.000162560015118 0.000162559984638 | 0.000162559984638 0.000162560015118 )  normamps=265.0 emergamps=600.0 units=ft

New Linecode.2P_Code3 nphases=2 Faultrate=0.1 Rmatrix=(7.27921203107e-05 -9.20790712135e-06 | -9.20790712135e-06 7.27921203107e-05 ) Xmatrix=(5.91175125882e-05 3.21175064922e-05 | 3.21175064922e-05 5.91175125882e-05 ) Cmatrix=(0.000162560015118 0.000162559984638 | 0.000162559984638 0.000162560015118 )  normamps=350.0 emergamps=600.0 units=ft

New Linecode.2P_Code7 nphases=2 Faultrate=0.1 Rmatrix=(0.000152125461772 -4.8874586996e-05 | -4.8874586996e-05 0.000152125461772 ) Xmatrix=(5.98508613648e-05 3.1750862584e-05 | 3.1750862584e-05 5.98508613648e-05 ) Cmatrix=(0.000162560015118 0.000162559984638 | 0.000162559984638 0.000162560015118 )  normamps=193.0 emergamps=600.0 units=ft

New Linecode.1P_Code4 nphases=1 Faultrate=0.1 Rmatrix=(0.000304799990246) Xmatrix=(0.000304799990246 ) Cmatrix=(0.00106666676827)  normamps=3000.0 emergamps=3000.0 units=ft

New Linecode.3P_Code14 nphases=3 Faultrate=0.1 Rmatrix=(0.000999999968 0.0 0.0 | 0.0 0.000999999968 0.0 | 0.0 0.0 0.000999999968 ) Xmatrix=(0.000999999968 0.0 0.0 | 0.0 0.000999999968 0.0 | 0.0 0.0 0.000999999968 ) Cmatrix=(0.00106666696587 -3.33333289333e-05 -3.33333289333e-05 | -3.33333289333e-05 0.00106666696587 -3.33333289333e-05 | -3.33333289333e-05 -3.33333289333e-05 0.00106666696587 )  normamps=400.0 units=ft

New Linecode.3P_Code10 nphases=3 Faultrate=0.1 Rmatrix=(3.32587690957e-05 1.05587684861e-05 1.05587684861e-05 | 1.05587684861e-05 3.32587690957e-05 1.05587684861e-05 | 1.05587684861e-05 1.05587684861e-05 3.32587690957e-05 ) Xmatrix=(8.91174211482e-05 1.71175674522e-05 1.71175674522e-05 | 1.71175674522e-05 8.91174211482e-05 1.71175674522e-05 | 1.71175674522e-05 1.71175674522e-05 8.91174211482e-05 ) Cmatrix=(0.0966825569062 -0.0480974384609 -0.0480974384609 | -0.0480974384609 0.0966825569062 -0.0480974384609 | -0.0480974384609 -0.0480974384609 0.0966825569062 )  normamps=600.0 emergamps=600.0 units=ft

New Linecode.1P_Code9 nphases=1 Faultrate=0.1 Rmatrix=(0.000163000024384 ) Xmatrix=(0.000103999890272 ) Cmatrix=(0.000460586313261 )  normamps=240.0 emergamps=600.0 units=ft

New Linecode.3P_Code1 nphases=3 Faultrate=0.1 Rmatrix=(4.25254812792e-05 5.92541239439e-06 5.92541239439e-06 | 5.92541239439e-06 4.25254812792e-05 5.92541239439e-06 | 5.92541239439e-06 5.92541239439e-06 4.25254812792e-05 ) Xmatrix=(9.53841089477e-05 1.39842235525e-05 1.39842235525e-05 | 1.39842235525e-05 9.53841089477e-05 1.39842235525e-05 | 1.39842235525e-05 1.39842235525e-05 9.53841089477e-05 ) Cmatrix=(0.00355600090221 -0.00153415984931 -0.00153415984931 | -0.00153415984931 0.00355600090221 -0.00153415984931 | -0.00153415984931 -0.00153415984931 0.00355600090221 )  normamps=660.0 emergamps=600.0 units=ft

New Linecode.3P_Code2 nphases=3 Faultrate=0.1 Rmatrix=(3.79254398264e-05 8.22544531279e-06 8.22544531279e-06 | 8.22544531279e-06 3.79254398264e-05 8.22544531279e-06 | 8.22544531279e-06 8.22544531279e-06 3.79254398264e-05 ) Xmatrix=(5.75841857573e-05 3.28842003877e-05 3.28842003877e-05 | 3.28842003877e-05 5.75841857573e-05 3.28842003877e-05 | 3.28842003877e-05 3.28842003877e-05 5.75841857573e-05 ) Cmatrix=(0.000162560197998 0.000162559893198 0.000162559893198 | 0.000162559893198 0.000162560197998 0.000162559893198 | 0.000162559893198 0.000162559893198 0.000162560197998 )  normamps=650.0 emergamps=600.0 units=ft

New Linecode.3P_Code5 nphases=3 Faultrate=0.1 Rmatrix=(0.000304799990246 0.0 0.0 | 0.0 0.000304799990246 0.0 | 0.0 0.0 0.000304799990246 ) Xmatrix=(0.000304799990246 0.0 0.0 | 0.0 0.000304799990246 0.0 | 0.0 0.0 0.000304799990246 ) Cmatrix=(0.00106666676827 -3.33333231733e-05 -3.33333231733e-05 | -3.33333231733e-05 0.00106666676827 -3.33333231733e-05 | -3.33333231733e-05 -3.33333231733e-05 0.00106666676827 )  normamps=3000.0 emergamps=3000.0 units=ft

New Linecode.3P_Code13 nphases=3 Faultrate=0.1 Rmatrix=(9.81333268597e-05 4.01333287157e-05 4.01333287157e-05 | 4.01333287157e-05 9.81333268597e-05 4.01333287157e-05 | 4.01333287157e-05 4.01333287157e-05 9.81333268597e-05 ) Xmatrix=(0.00021529999311 9.46999969696e-05 9.46999969696e-05 | 9.46999969696e-05 0.00021529999311 9.46999969696e-05 | 9.46999969696e-05 9.46999969696e-05 0.00021529999311 ) Cmatrix=(0.0027999999104 -0.0005999999808 -0.0005999999808 | -0.0005999999808 0.0027999999104 -0.0005999999808 | -0.0005999999808 -0.0005999999808 0.0027999999104 )  normamps=400.0 units=ft

New Linecode.2P_Code8 nphases=2 Faultrate=0.1 Rmatrix=(8.54588154253e-05 -1.55412424867e-05 | -1.55412424867e-05 8.54588154253e-05 ) Xmatrix=(5.87841833189e-05 3.22841711269e-05 | 3.22841711269e-05 5.87841833189e-05 ) Cmatrix=(0.000162560015118 0.000162559984638 | 0.000162559984638 0.000162560015118 )  normamps=290.0 emergamps=600.0 units=ft

New Linecode.1P_Code6 nphases=1 Faultrate=0.1 Rmatrix=(2.27000097536e-05 ) Xmatrix=(7.1999853696e-05 ) Cmatrix=(0.0160866729252 )  normamps=600.0 emergamps=600.0 units=ft

New Linecode.3P_Code11 nphases=3 Faultrate=0.1 Rmatrix=(8.54588154253e-05 -1.55412424867e-05 -1.55412424867e-05 | -1.55412424867e-05 8.54588154253e-05 -1.55412424867e-05 | -1.55412424867e-05 -1.55412424867e-05 8.54588154253e-05 ) Xmatrix=(5.87841833189e-05 3.22841711269e-05 3.22841711269e-05 | 3.22841711269e-05 5.87841833189e-05 3.22841711269e-05 | 3.22841711269e-05 3.22841711269e-05 5.87841833189e-05 ) Cmatrix=(0.000162560197998 0.000162559893198 0.000162559893198 | 0.000162559893198 0.000162560197998 0.000162559893198 | 0.000162559893198 0.000162559893198 0.000162560197998 )  normamps=290.0 emergamps=600.0 units=ft

New Linecode.2P_Code12 nphases=2 Faultrate=0.1 Rmatrix=(0.000124125528828 -3.4874605284e-05 | -3.4874605284e-05 0.000124125528828 ) Xmatrix=(5.97841711269e-05 3.17841772229e-05 | 3.17841772229e-05 5.97841711269e-05 ) Cmatrix=(0.000162560015118 0.000162559984638 | 0.000162559984638 0.000162560015118 )  normamps=221.0 emergamps=600.0 units=ft

